129

N          0.00000        0.00000        0.00000
C          1.44675        0.00000        0.00000
C          1.96825        0.00000        1.43350
O          1.23855        0.00000        2.42187
H          1.79887       -0.89599       -0.52238
H          1.79973        0.89301       -0.52356
H         -0.47223       -0.00252        0.89965
H         -0.50800        0.07669       -0.87653
N          3.28785       -0.00000        1.66639
C          3.78246        0.00022        3.02597
C          5.30787        0.00017        3.02597
O          5.98722       -0.00002        2.00234
H          3.41197        0.89631        3.53531
H          3.41109       -0.89269        3.53683
H          3.97186        0.00237        0.91504
N          5.97787        0.00035        4.18645
C          7.42462        0.00009        4.18645
C          7.94612        0.00037        5.61994
O          7.21641        0.00075        6.60831
H          7.77658       -0.89610        3.66430
H          7.77776        0.89290        3.66265
H          5.50563       -0.00185        5.08610
N          9.26572        0.00019        5.85284
C          9.76033        0.00067        7.21242
C         11.28573        0.00034        7.21242
O         11.96509       -0.00024        6.18879
H          9.39000        0.89695        7.72152
H          9.38879       -0.89204        7.72351
H          9.94972        0.00224        5.10149
N         11.95573        0.00070        8.37289
C         13.40249        0.00018        8.37289
C         13.92398        0.00073        9.80639
O         13.19428        0.00151       10.79476
H         13.75428       -0.89621        7.85098
H         13.75579        0.89279        7.84887
H         11.48350       -0.00118        9.27255
N         15.24359        0.00037       10.03929
C         15.73819        0.00112       11.39887
C         17.26360        0.00052       11.39887
O         17.94295       -0.00046       10.37523
H         15.36803        0.89760       11.90774
H         15.36650       -0.89139       11.91018
H         15.92759        0.00211        9.28794
N         17.93360        0.00105       12.55934
C         19.38036        0.00027       12.55934
C         19.90185        0.00110       13.99284
O         19.17215        0.00226       14.98121
H         19.73199       -0.89632       12.03766
H         19.73382        0.89267       12.03508
H         17.46137       -0.00051       13.45900
N         21.22146        0.00056       14.22573
C         21.71606        0.00157       15.58531
C         23.24147        0.00069       15.58531
O         23.92082       -0.00067       14.56168
H         21.34606        0.89825       16.09395
H         21.34421       -0.89074       16.09686
H         21.90546        0.00198       13.47438
N         23.91147        0.00141       16.74579
C         25.35822        0.00036       16.74579
C         25.87972        0.00146       18.17928
O         25.15002        0.00302       19.16765
H         25.70969       -0.89643       16.22434
H         25.71185        0.89256       16.22130
H         23.43923        0.00016       17.64544
N         27.19932        0.00075       18.41218
C         27.69393        0.00202       19.77176
C         29.21934        0.00086       19.77176
O         29.89869       -0.00089       18.74813
H         27.32409        0.89890       20.28017
H         27.32191       -0.89009       20.28354
H         27.88333        0.00184       17.66083
N         29.88934        0.00176       20.93223
C         31.33609        0.00044       20.93224
C         31.85759        0.00183       22.36573
O         31.12788        0.00377       23.35410
H         31.68740       -0.89654       20.41102
H         31.68988        0.89245       20.40752
H         29.41710        0.00083       21.83189
N         33.17719        0.00093       22.59863
C         33.67180        0.00246       23.95821
C         35.19720        0.00103       23.95821
O         35.87656       -0.00110       22.93458
H         33.30212        0.89955       24.46638
H         33.29962       -0.88944       24.47022
H         33.86119        0.00171       21.84728
N         35.86720        0.00211       25.11868
C         37.31396        0.00053       25.11868
C         37.83545        0.00219       26.55218
O         37.10575        0.00453       27.54055
H         37.66510       -0.89665       24.59770
H         37.66791        0.89234       24.59373
H         35.39497        0.00150       26.01834
N         39.15506        0.00112       26.78507
C         39.64966        0.00291       28.14465
C         41.17507        0.00121       28.14466
O         41.85442       -0.00132       27.12102
H         39.28015        0.90019       28.65260
H         39.27732       -0.88879       28.65690
H         39.83906        0.00158       26.03372
N         41.84507        0.00246       29.30513
C         43.29182        0.00062       29.30513
C         43.81332        0.00256       30.73862
O         43.08362        0.00528       31.72699
H         43.64281       -0.89676       28.78438
H         43.64594        0.89223       28.77995
H         41.37284        0.00217       30.20478
N         45.13293        0.00131       30.97152
C         45.62753        0.00336       32.33110
C         47.15294        0.00138       32.33110
O         47.83229       -0.00154       31.30747
H         45.25818        0.90084       32.83881
H         45.25503       -0.88814       32.84357
H         45.81693        0.00145       30.22017
N         47.82294        0.00281       33.49157
C         49.26969        0.00071       33.49158
C         49.79119        0.00293       34.92507
O         49.06149        0.00603       35.91344
H         49.62051       -0.89687       32.97106
H         49.62396        0.89212       32.96616
H         47.35070        0.00284       34.39123
N         51.11079        0.00149       35.15797
C         51.60540        0.00381       36.51755
C         53.13081        0.00155       36.51755
O         53.81016       -0.00175       35.49392
H         51.23621        0.90149       37.02502
H         51.23273       -0.88749       37.03025
H         51.79480        0.00131       34.40662
O         53.73212        0.00338       37.72735
H         53.14377        0.00624       38.61387
