17

N          0.00000        0.00000        0.00000
C          1.44675        0.00000        0.00000
C          1.96825        0.00000        1.43350
O          1.23855        0.00000        2.42187
H          1.79887       -0.89599       -0.52238
H          1.79973        0.89301       -0.52356
H         -0.47223       -0.00252        0.89965
H         -0.50800        0.07669       -0.87653
N          3.28785       -0.00000        1.66639
C          3.78246        0.00022        3.02597
C          5.30787        0.00017        3.02597
O          5.98722       -0.00002        2.00234
H          3.41197        0.89631        3.53531
H          3.41109       -0.89269        3.53683
H          3.97186        0.00237        0.91504
O          5.90918        0.00036        4.23577
H          5.32082        0.00053        5.12230
