31

N          0.00000        0.00000        0.00000
C          1.44675        0.00000        0.00000
C          1.96825        0.00000        1.43350
O          1.23855        0.00000        2.42187
H          1.79887       -0.89599       -0.52238
H          1.79973        0.89301       -0.52356
H         -0.47223       -0.00252        0.89965
H         -0.50800        0.07669       -0.87653
N          3.28785       -0.00000        1.66639
C          3.78246        0.00022        3.02597
C          5.30787        0.00017        3.02597
O          5.98722       -0.00002        2.00234
H          3.41197        0.89631        3.53531
H          3.41109       -0.89269        3.53683
H          3.97186        0.00237        0.91504
N          5.97787        0.00035        4.18645
C          7.42462        0.00009        4.18645
C          7.94612        0.00037        5.61994
O          7.21641        0.00075        6.60831
H          7.77658       -0.89610        3.66430
H          7.77776        0.89290        3.66265
H          5.50563       -0.00185        5.08610
N          9.26572        0.00019        5.85284
C          9.76033        0.00067        7.21242
C         11.28573        0.00034        7.21242
O         11.96509       -0.00024        6.18879
H          9.39000        0.89695        7.72152
H          9.38879       -0.89204        7.72351
H          9.94972        0.00224        5.10149
O         11.88705        0.00074        8.42222
H         11.29869        0.00125        9.30875
