52

N          0.00000        0.00000        0.00000
C          1.44675        0.00000        0.00000
C          1.96825        0.00000        1.43350
O          1.23855        0.00000        2.42187
H          1.79887       -0.89599       -0.52238
H          1.79973        0.89301       -0.52356
H         -0.47223       -0.00252        0.89965
H         -0.50800        0.07669       -0.87653
N          3.28785       -0.00000        1.66639
C          3.78246        0.00022        3.02597
C          5.30787        0.00017        3.02597
O          5.98722       -0.00002        2.00234
H          3.41197        0.89631        3.53531
H          3.41109       -0.89269        3.53683
H          3.97186        0.00237        0.91504
N          5.97787        0.00035        4.18645
C          7.42462        0.00009        4.18645
C          7.94612        0.00037        5.61994
O          7.21641        0.00075        6.60831
H          7.77658       -0.89610        3.66430
H          7.77776        0.89290        3.66265
H          5.50563       -0.00185        5.08610
N          9.26572        0.00019        5.85284
C          9.76033        0.00067        7.21242
C         11.28573        0.00034        7.21242
O         11.96509       -0.00024        6.18879
H          9.39000        0.89695        7.72152
H          9.38879       -0.89204        7.72351
H          9.94972        0.00224        5.10149
N         11.95573        0.00070        8.37289
C         13.40249        0.00018        8.37289
C         13.92398        0.00073        9.80639
O         13.19428        0.00151       10.79476
H         13.75428       -0.89621        7.85098
H         13.75579        0.89279        7.84887
H         11.48350       -0.00118        9.27255
N         15.24359        0.00037       10.03929
C         15.73819        0.00112       11.39887
C         17.26360        0.00052       11.39887
O         17.94295       -0.00046       10.37523
H         15.36803        0.89760       11.90774
H         15.36650       -0.89139       11.91018
H         15.92759        0.00211        9.28794
N         17.93360        0.00105       12.55934
C         19.38036        0.00027       12.55934
C         19.90185        0.00110       13.99284
O         19.17215        0.00226       14.98121
H         19.73199       -0.89632       12.03766
H         19.73382        0.89267       12.03508
H         17.46137       -0.00051       13.45900
O         21.24433        0.00048       14.14432
H         21.87630       -0.00053       13.28834
